*HEADING
01 - UB31 Cantilever Beam (Linear Static & Dynamic Multi-Station CSV Output)
*USER ELEMENT, TYPE=UB31, NODES=2, MAXDOF=6, INTEGRATIONPOINTS=1
*NODE, NSET=NALL
1,  0.0, 0.0, 0.0
2,  1.0, 0.0, 0.0
3,  2.0, 0.0, 0.0
4,  3.0, 0.0, 0.0
5,  4.0, 0.0, 0.0
6,  5.0, 0.0, 0.0
*ELEMENT, TYPE=UB31, ELSET=EBEAM
1, 1, 2
2, 2, 3
3, 3, 4
4, 4, 5
5, 5, 6
*MATERIAL, NAME=STEEL
*ELASTIC
2.1E11, 0.3
*DENSITY
7850.0
*USER BEAM SECTION, ELSET=EBEAM, MATERIAL=STEEL, SECTION=RECT
0.1, 0.2
*BOUNDARY
1, 1, 6
*STEP
*STATIC
*DLOAD
EBEAM, P1, -5000.0
*CLOAD
6, 2, -10000.0
*NODE FILE
U, RF
*EL FILE
S
*USER BEAM OUTPUT, FILE=01_cantilever_results.csv, ELSET=EBEAM, SUBDIVISIONS=10, INCREMENT=LAST
F, U, S
*END STEP
