*HEADING
02 - Multi-Section Validation (All 8 UB31 Cross-Section Profiles)
*USER ELEMENT, TYPE=UB31, NODES=2, MAXDOF=6, INTEGRATIONPOINTS=1
*NODE
** 1. RECT
1, 0.0, 0.0, 0.0
2, 3.0, 0.0, 0.0
** 2. CIRC
3, 0.0, 1.0, 0.0
4, 3.0, 1.0, 0.0
** 3. PIPE
5, 0.0, 2.0, 0.0
6, 3.0, 2.0, 0.0
** 4. I-BEAM
7, 0.0, 3.0, 0.0
8, 3.0, 3.0, 0.0
** 5. TEE
9, 0.0, 4.0, 0.0
10, 3.0, 4.0, 0.0
** 6. CHAN (U-Channel)
11, 0.0, 5.0, 0.0
12, 3.0, 5.0, 0.0
** 7. L (Angle)
13, 0.0, 6.0, 0.0
14, 3.0, 6.0, 0.0
** 8. BOX (Hollow Box)
15, 0.0, 7.0, 0.0
16, 3.0, 7.0, 0.0

*ELEMENT, TYPE=UB31, ELSET=E_RECT
1, 1, 2
*ELEMENT, TYPE=UB31, ELSET=E_CIRC
2, 3, 4
*ELEMENT, TYPE=UB31, ELSET=E_PIPE
3, 5, 6
*ELEMENT, TYPE=UB31, ELSET=E_IBEAM
4, 7, 8
*ELEMENT, TYPE=UB31, ELSET=E_TEE
5, 9, 10
*ELEMENT, TYPE=UB31, ELSET=E_CHAN
6, 11, 12
*ELEMENT, TYPE=UB31, ELSET=E_ANGLE
7, 13, 14
*ELEMENT, TYPE=UB31, ELSET=E_BOX
8, 15, 16

*ELSET, ELSET=EALL
E_RECT, E_CIRC, E_PIPE, E_IBEAM, E_TEE, E_CHAN, E_ANGLE, E_BOX

*MATERIAL, NAME=STEEL
*ELASTIC
210.0E9, 0.30
*DENSITY
7850.0

*USER BEAM SECTION, ELSET=E_RECT, MATERIAL=STEEL, SECTION=RECT
0.15, 0.30

*USER BEAM SECTION, ELSET=E_CIRC, MATERIAL=STEEL, SECTION=CIRC
0.05

*USER BEAM SECTION, ELSET=E_PIPE, MATERIAL=STEEL, SECTION=PIPE
0.10, 0.008

*USER BEAM SECTION, ELSET=E_IBEAM, MATERIAL=STEEL, SECTION=I
0.290, 0.300, 0.014, 0.300, 0.014, 0.0085

*USER BEAM SECTION, ELSET=E_TEE, MATERIAL=STEEL, SECTION=T
0.150, 0.100, 0.010, 0.006

*USER BEAM SECTION, ELSET=E_CHAN, MATERIAL=STEEL, SECTION=CHAN
0.200, 0.075, 0.0115, 0.0085

*USER BEAM SECTION, ELSET=E_ANGLE, MATERIAL=STEEL, SECTION=L
0.100, 0.100, 0.010

*USER BEAM SECTION, ELSET=E_BOX, MATERIAL=STEEL, SECTION=BOX
0.200, 0.100, 0.008, 0.008, 0.008, 0.008

*BOUNDARY
1, 1, 6
3, 1, 6
5, 1, 6
7, 1, 6
9, 1, 6
11, 1, 6
13, 1, 6
15, 1, 6

*STEP
*STATIC
*DLOAD
EALL, P2, -10000.0
*NODE FILE
U, RF
*EL FILE
S
*USER BEAM OUTPUT, FILE=02_multisection_forces.csv, ELSET=EALL, SUBDIVISIONS=5
F, U, S
*END STEP
