*HEADING
03 - Member End Releases & Internal Hinges (M1-M2, M1, M2, ALLM)
*USER ELEMENT, TYPE=UB31, NODES=2, MAXDOF=6, INTEGRATIONPOINTS=1
*NODE
** Beam 1: Pinned-Pinned Beam (M1-M2 releases at both ends)
1, 0.0, 0.0, 0.0
2, 6.0, 0.0, 0.0
** Beam 2: Propped Cantilever with Tip Moment Release (M2 at Node 2)
3, 0.0, 2.0, 0.0
4, 6.0, 2.0, 0.0
** Beam 3: Truss/Ball-Joint Member (ALLM = 56 at both ends)
5, 0.0, 4.0, 0.0
6, 6.0, 4.0, 0.0

*ELEMENT, TYPE=UB31, ELSET=EPINNED
1, 1, 2
*ELEMENT, TYPE=UB31, ELSET=EPROPPED
2, 3, 4
*ELEMENT, TYPE=UB31, ELSET=ETRUSS
3, 5, 6

*ELSET, ELSET=EALL
EPINNED, EPROPPED, ETRUSS

*MATERIAL, NAME=STEEL
*ELASTIC
210.0E9, 0.30

*USER BEAM SECTION, ELSET=EPINNED, MATERIAL=STEEL, SECTION=I, RELEASE1=M1-M2, RELEASE2=M1-M2
0.30, 0.15, 0.0107, 0.15, 0.0107, 0.0071

*USER BEAM SECTION, ELSET=EPROPPED, MATERIAL=STEEL, SECTION=RECT, RELEASE2=M2
0.15, 0.30

*USER BEAM SECTION, ELSET=ETRUSS, MATERIAL=STEEL, SECTION=PIPE, RELEASE1=ALLM, RELEASE2=ALLM
0.08, 0.006

*BOUNDARY
** Fixed supports at left nodes
1, 1, 6
3, 1, 6
5, 1, 6
** Restraints at right nodes
2, 1, 3
4, 1, 3
6, 1, 3

*STEP
*STATIC
*DLOAD
EPINNED, P2, -20000.0
EPROPPED, P2, -20000.0
ETRUSS, PX, -50000.0
*NODE FILE
U, RF
*EL FILE
S
*USER BEAM OUTPUT, FILE=03_releases_forces.csv, ELSET=EALL, SUBDIVISIONS=10
F, U, S
*END STEP
