*HEADING
04 - 3D Geometric Nodal Offsets (OFFSET1, OFFSET2)
*USER ELEMENT, TYPE=UB31, NODES=2, MAXDOF=6, INTEGRATIONPOINTS=1
*NODE
1, 0.0, 0.0, 0.0
2, 4.0, 0.0, 0.0
3, 8.0, 0.0, 0.0

*ELEMENT, TYPE=UB31, ELSET=EOFFSET
1, 1, 2
2, 2, 3

*MATERIAL, NAME=STEEL
*ELASTIC
210.0E9, 0.30

** Hollow box section with a +0.10 m vertical neutral axis offset
*USER BEAM SECTION, ELSET=EOFFSET, MATERIAL=STEEL, SECTION=BOX, OFFSET1=(0.0, 0.10, 0.0), OFFSET2=(0.0, 0.10, 0.0)
0.20, 0.10, 0.008, 0.008, 0.008, 0.008

*BOUNDARY
1, 1, 6
3, 2, 3

*STEP
*STATIC
*DLOAD
EOFFSET, P2, -15000.0
*CLOAD
2, 1, 50000.0
*NODE FILE
U, RF
*EL FILE
S
*USER BEAM OUTPUT, FILE=04_offsets_forces.csv, ELSET=EOFFSET, SUBDIVISIONS=10
F, U, S
*END STEP
