*HEADING
05 - Distributed Loading Suite (Transverse P1, P2, Axial PX, Gravity)
*USER ELEMENT, TYPE=UB31, NODES=2, MAXDOF=6, INTEGRATIONPOINTS=1
*NODE
1, 0.0, 0.0, 0.0
2, 6.0, 0.0, 0.0
3, 0.0, 2.0, 0.0
4, 6.0, 2.0, 0.0
5, 0.0, 4.0, 0.0
6, 6.0, 4.0, 0.0

*ELEMENT, TYPE=UB31, ELSET=E_BEAM1
1, 1, 2
*ELEMENT, TYPE=UB31, ELSET=E_BEAM2
2, 3, 4
*ELEMENT, TYPE=UB31, ELSET=E_BEAM3
3, 5, 6

*ELSET, ELSET=EALL
E_BEAM1, E_BEAM2, E_BEAM3

*MATERIAL, NAME=STEEL
*ELASTIC
210.0E9, 0.30
*DENSITY
7850.0

*USER BEAM SECTION, ELSET=E_BEAM1, MATERIAL=STEEL, SECTION=RECT
0.15, 0.30

*USER BEAM SECTION, ELSET=E_BEAM2, MATERIAL=STEEL, SECTION=I
0.30, 0.15, 0.0107, 0.15, 0.0107, 0.0071

*USER BEAM SECTION, ELSET=E_BEAM3, MATERIAL=STEEL, SECTION=BOX
0.20, 0.10, 0.008, 0.008, 0.008, 0.008

*BOUNDARY
1, 1, 6
3, 1, 6
5, 1, 6
2, 2, 3
4, 2, 3
6, 2, 3

*STEP
*STATIC
*DLOAD
** 1. Transverse P2 line load + axial PX line load
E_BEAM1, P2, -12000.0
E_BEAM1, PX, -5000.0
** 2. Transverse P1 line load
E_BEAM2, P1, -18000.0
** 3. Combined P2 + Gravity load
E_BEAM3, P2, -25000.0
E_BEAM3, GRAV, 9.81, 0.0, -1.0, 0.0
*NODE FILE
U, RF
*EL FILE
S
*USER BEAM OUTPUT, FILE=05_distributed_loading_forces.csv, ELSET=EALL, SUBDIVISIONS=10
F, U, S, Q
*END STEP
