*HEADING
06 - UCONN6 Linear Elastic Semi-Rigid Joint Spring
*USER ELEMENT, TYPE=UB31, NODES=2, MAXDOF=6, INTEGRATIONPOINTS=1
*USER ELEMENT, TYPE=UCONN6, NODES=2, MAXDOF=6, INTEGRATIONPOINTS=1

*NODE, NSET=NALL
1,   0.0, 0.0, 0.0
2,   4.0, 0.0, 0.0
102, 4.0, 0.0, 0.0
3,   8.0, 0.0, 0.0

*ELEMENT, TYPE=UB31, ELSET=EBEAM1
1, 1, 2
*ELEMENT, TYPE=UB31, ELSET=EBEAM2
2, 102, 3

*ELEMENT, TYPE=UCONN6, ELSET=ESPRING
10, 2, 102

*MATERIAL, NAME=STEEL
*ELASTIC
210.0E9, 0.30

*USER BEAM SECTION, ELSET=EBEAM1, MATERIAL=STEEL, SECTION=RECT
0.15, 0.30

*USER BEAM SECTION, ELSET=EBEAM2, MATERIAL=STEEL, SECTION=RECT
0.15, 0.30

** 6-DOF Elastic connector: Rigid in translations, semi-rigid in bending (K_ry = 5.0E6 N*m/rad)
*USER CONNECTOR, ELSET=ESPRING
1.0E12, 1.0E12, 1.0E12, 1.0E12, 5.0E6, 1.0E12

*BOUNDARY
1, 1, 6
3, 1, 6

*STEP
*STATIC
*DLOAD
EBEAM1, P2, -15000.0
EBEAM2, P2, -15000.0
*NODE FILE
U, RF
*EL FILE
S
*USER CONNECTOR OUTPUT, FILE=06_spring_results.csv, ELSET=ESPRING
F, U
*END STEP
