*HEADING
07 - UCONN6 ASCE 41-17 Inelastic Pushover Analysis
*USER ELEMENT, TYPE=UB31, NODES=2, MAXDOF=6, INTEGRATIONPOINTS=1
*USER ELEMENT, TYPE=UCONN6, NODES=2, MAXDOF=6, INTEGRATIONPOINTS=1

*NODE, NSET=NALL
1,   0.0, 0.0, 0.0
2,   0.0, 3.5, 0.0
102, 0.0, 3.5, 0.0
3,   6.0, 3.5, 0.0
103, 6.0, 3.5, 0.0
4,   6.0, 0.0, 0.0

*ELEMENT, TYPE=UB31, ELSET=ECOL1
1, 1, 2
*ELEMENT, TYPE=UB31, ELSET=ECOL2
2, 4, 103
*ELEMENT, TYPE=UB31, ELSET=EBEAM
3, 102, 3

*ELEMENT, TYPE=UCONN6, ELSET=EHINGE1
11, 2, 102
*ELEMENT, TYPE=UCONN6, ELSET=EHINGE2
12, 3, 103

*MATERIAL, NAME=STEEL
*ELASTIC
210.0E9, 0.30

*USER BEAM SECTION, ELSET=ECOL1, MATERIAL=STEEL, SECTION=I
0.30, 0.30, 0.015, 0.30, 0.015, 0.010
1.0, 0.0, 0.0
*USER BEAM SECTION, ELSET=ECOL2, MATERIAL=STEEL, SECTION=I
0.30, 0.30, 0.015, 0.30, 0.015, 0.010
1.0, 0.0, 0.0
*USER BEAM SECTION, ELSET=EBEAM, MATERIAL=STEEL, SECTION=I
0.35, 0.20, 0.014, 0.20, 0.014, 0.008
0.0, 1.0, 0.0

** ASCE 41-17 Plastic Hinge definition on DOF 5 (Ry bending)
*USER CONNECTOR, ELSET=EHINGE1, NONLINEAR=ASCE41
1.0E12, 1.0E12, 1.0E12, 1.0E12, 0.0, 1.0E12
180.0E3, 0.004, 0.020, 0.20, 0.035, 0.045, 0.03, 5

*USER CONNECTOR, ELSET=EHINGE2, NONLINEAR=ASCE41
1.0E12, 1.0E12, 1.0E12, 1.0E12, 0.0, 1.0E12
180.0E3, 0.004, 0.020, 0.20, 0.035, 0.045, 0.03, 5

*BOUNDARY
1, 1, 6
4, 1, 6
2, 3, 3
102, 3, 3
3, 3, 3
103, 3, 3

*STEP, NLGEOM
*STATIC
0.1, 1.0
*DLOAD
EBEAM, P2, -20000.0
*CLOAD
2, 1, 85000.0
*NODE FILE
U, RF
*EL FILE
S
*USER CONNECTOR OUTPUT, FILE=07_asce41_hinge_state.csv, ELSET=(EHINGE1, EHINGE2), INCREMENT=ALL
F, U, STATE
*END STEP
