*HEADING
08 - Native Step-Level Load Combinations (*USER LOAD COMBINATION)
*USER ELEMENT, TYPE=UB31, NODES=2, MAXDOF=6, INTEGRATIONPOINTS=1

*NODE, NSET=NALL
1,   0.0, 0.0, 0.0
2,   0.0, 4.0, 0.0
3,   6.0, 4.0, 0.0
4,   6.0, 0.0, 0.0

*ELEMENT, TYPE=UB31, ELSET=ECOL
1, 1, 2
2, 4, 3
*ELEMENT, TYPE=UB31, ELSET=EBEAM
3, 2, 3

*MATERIAL, NAME=STEEL
*ELASTIC
210.0E9, 0.30
*DENSITY
7850.0

*USER BEAM SECTION, ELSET=ECOL, MATERIAL=STEEL, SECTION=I
0.30, 0.30, 0.015, 0.30, 0.015, 0.010
1.0, 0.0, 0.0

*USER BEAM SECTION, ELSET=EBEAM, MATERIAL=STEEL, SECTION=I
0.35, 0.20, 0.014, 0.20, 0.014, 0.008

*BOUNDARY
1, 1, 6
4, 1, 6
2, 3, 3
3, 3, 3

** ==============================================================================
** Step 1: Self-Weight / Dead Load (G)
** ==============================================================================
*STEP
*STATIC
*DLOAD
ECOL, GRAV, 9.81, 0.0, -1.0, 0.0
EBEAM, GRAV, 9.81, 0.0, -1.0, 0.0
*NODE FILE
U, RF
*END STEP

** ==============================================================================
** Step 2: Imposed Live Load (Q)
** ==============================================================================
*STEP
*STATIC
*DLOAD
EBEAM, P2, -20000.0
*NODE FILE
U, RF
*END STEP

** ==============================================================================
** Step 3: Lateral Wind Load (W)
** ==============================================================================
*STEP
*STATIC
*CLOAD
2, 1, 30000.0
*NODE FILE
U, RF
*END STEP

** ==============================================================================
** Step 4: ULS Fundamental Combination (1.35*G + 1.50*Q + 0.90*W)
** ==============================================================================
*STEP
*STATIC
*USER LOAD COMBINATION
ULS_STR, 1, 1.35, 2, 1.50, 3, 0.90
*NODE FILE
U, RF
*EL FILE
S
*USER BEAM OUTPUT, FILE=08_comb_uls_forces.csv, ELSET=EBEAM, SUBDIVISIONS=10
F, U, S
*END STEP

** ==============================================================================
** Step 5: SLS Characteristic Combination (1.00*G + 1.00*Q)
** ==============================================================================
*STEP, NLGEOM
*STATIC
*USER LOAD COMBINATION
SLS_CHAR, 1, 1.00, 2, 1.00
*NODE FILE
U, RF
*USER BEAM OUTPUT, FILE=08_comb_sls_forces.csv, ELSET=EBEAM, SUBDIVISIONS=10
F, U
*END STEP
