*HEADING
09 - Eurocode 3 (EN 1993-1-1) & AISC 360 Structural Steel Code Checking
*USER ELEMENT, TYPE=UB31, NODES=2, MAXDOF=6, INTEGRATIONPOINTS=1

*NODE
1, 0.0, 0.0, 0.0
2, 6.0, 0.0, 0.0

*ELEMENT, TYPE=UB31, ELSET=EBEAM
1, 1, 2

*USER BEAM SECTION, ELSET=EBEAM, MATERIAL=STEEL, SECTION=I
0.300, 0.150, 0.0107, 0.150, 0.0107, 0.0071

*MATERIAL, NAME=STEEL
*ELASTIC
210.0E9, 0.30

*BOUNDARY
1, 1, 6
2, 2, 3

** --- Code Check Configuration ---
*USER BEAM DESIGN, ELSET=EBEAM
FY=355.0E6, LCR_Y=6.0, LCR_Z=3.0, L_LT=3.0, C1=1.13

*USER BEAM DESIGN OVERRIDES
** TARGET_ID,  LCR_Y,  LCR_Z,  L_LT,   C1,    FY
   1,          6.0,    3.0,    3.0,    1.13,  355.0E6

*USER BEAM CHECK, CODE=EC3, FILE=09_codecheck_ec3.csv, SUBDIVISIONS=5, OUTPUT=ALL

*STEP
*STATIC
*DLOAD
EBEAM, P2, -25000.0
*NODE FILE
U, RF
*EL FILE
S
*END STEP
