*HEADING
10 - Modal Natural Frequency Extraction (*FREQUENCY)
*USER ELEMENT, TYPE=UB31, NODES=2, MAXDOF=6, INTEGRATIONPOINTS=1

*NODE, NSET=NALL
1,   0.0, 0.0, 0.0
2,   0.0, 3.0, 0.0
3,   4.0, 3.0, 0.0
4,   4.0, 0.0, 0.0

*ELEMENT, TYPE=UB31, ELSET=ECOL
1, 1, 2
2, 4, 3
*ELEMENT, TYPE=UB31, ELSET=EBEAM
3, 2, 3

*MATERIAL, NAME=STEEL
*ELASTIC
210.0E9, 0.30
*DENSITY
7850.0

*USER BEAM SECTION, ELSET=ECOL, MATERIAL=STEEL, SECTION=BOX
0.20, 0.20, 0.010, 0.010, 0.010, 0.010
1.0, 0.0, 0.0

*USER BEAM SECTION, ELSET=EBEAM, MATERIAL=STEEL, SECTION=I
0.30, 0.15, 0.0107, 0.15, 0.0107, 0.0071

*BOUNDARY
1, 1, 6
4, 1, 6
2, 3, 3
3, 3, 3

*STEP
*FREQUENCY
10
*NODE FILE
U
*EL FILE
S
*END STEP
