*HEADING
11 - Critical Elastic Eigenvalue Buckling (*BUCKLE)
*USER ELEMENT, TYPE=UB31, NODES=2, MAXDOF=6, INTEGRATIONPOINTS=1

*NODE, NSET=NALL
1, 0.0, 0.0, 0.0
2, 0.1, 0.0, 0.0
3, 0.2, 0.0, 0.0
4, 0.3, 0.0, 0.0
5, 0.4, 0.0, 0.0
6, 0.5, 0.0, 0.0
7, 0.6, 0.0, 0.0
8, 0.7, 0.0, 0.0
9, 0.8, 0.0, 0.0
10, 0.9, 0.0, 0.0
11, 1.0, 0.0, 0.0
12, 1.1, 0.0, 0.0
13, 1.2, 0.0, 0.0
14, 1.3, 0.0, 0.0
15, 1.4, 0.0, 0.0
16, 1.5, 0.0, 0.0
17, 1.6, 0.0, 0.0
18, 1.7, 0.0, 0.0
19, 1.8, 0.0, 0.0
20, 1.9, 0.0, 0.0
** ... 11 like lines cut

*ELEMENT, TYPE=UB31, ELSET=ECOL
1, 1, 2
2, 2, 3
3, 3, 4
4, 4, 5
5, 5, 6
6, 6, 7
7, 7, 8
8, 8, 9
9, 9, 10
10, 10, 11
11, 11, 12
12, 12, 13
13, 13, 14
14, 14, 15
15, 15, 16
16, 16, 17
17, 17, 18
18, 18, 19
19, 19, 20
20, 20, 21
** ... 10 like lines cut

*MATERIAL, NAME=STEEL
*ELASTIC
210.0E9, 0.30
*DENSITY
7850.0

*USER BEAM SECTION, ELSET=ECOL, MATERIAL=STEEL, SECTION=I
0.20, 0.10, 0.010, 0.10, 0.010, 0.008
0.0, 0.0, 1.0

*BOUNDARY
1, 1, 6

*STEP
*BUCKLE
5
*CLOAD
31, 1, -10000.0
*NODE FILE
U
*EL FILE
S
*END STEP
