*HEADING
12 - Geometric Nonlinearity & Second-Order P-Delta (*STEP, NLGEOM)
*USER ELEMENT, TYPE=UB31, NODES=2, MAXDOF=6, INTEGRATIONPOINTS=1

*NODE, NSET=NALL
1,   0.0, 0.0, 0.0
2,   0.0, 1.5, 0.0
3,   0.0, 3.0, 0.0
4,   0.0, 4.5, 0.0
5,   0.0, 6.0, 0.0

*ELEMENT, TYPE=UB31, ELSET=ECOL
1, 1, 2
2, 2, 3
3, 3, 4
4, 4, 5

*MATERIAL, NAME=STEEL
*ELASTIC
210.0E9, 0.30

*USER BEAM SECTION, ELSET=ECOL, MATERIAL=STEEL, SECTION=PIPE
0.10, 0.008
1.0, 0.0, 0.0

*BOUNDARY
1, 1, 6
5, 3, 3

*STEP, NLGEOM
*STATIC
0.1, 1.0
*CLOAD
5, 2, -25000.0
5, 1, 2000.0
*NODE FILE
U, RF
*EL FILE
S
*USER BEAM OUTPUT, FILE=12_pdelta_forces.csv, ELSET=ECOL, SUBDIVISIONS=5, INCREMENT=ALL
F, U, S
*END STEP
