*HEADING
13 - 2D Portal Frame Benchmark (Combined Gravity & Lateral Loading)
*USER ELEMENT, TYPE=UB31, NODES=2, MAXDOF=6, INTEGRATIONPOINTS=1
*NODE, NSET=NALL
1,   0.0,   0.0, 0.0
2,   6.0,   0.0, 0.0
3,   0.0,   3.5, 0.0
4,   6.0,   3.5, 0.0

*ELEMENT, TYPE=UB31, ELSET=ECOL
1, 1, 3
2, 2, 4
*ELEMENT, TYPE=UB31, ELSET=EBEAM
3, 3, 4

*MATERIAL, NAME=STEEL
*ELASTIC
210.0E9, 0.30

*USER BEAM SECTION, ELSET=ECOL, MATERIAL=STEEL, SECTION=RECT
0.25, 0.25
1.0, 0.0, 0.0

*USER BEAM SECTION, ELSET=EBEAM, MATERIAL=STEEL, SECTION=RECT
0.20, 0.35

*BOUNDARY
1, 1, 6
2, 1, 6
3, 3, 5
4, 3, 5

*STEP
*STATIC
*CLOAD
3, 1, 40000.0
*DLOAD
3, P1, -25000.0
*NODE FILE
U, RF
*EL FILE
S
*USER BEAM OUTPUT, FILE=13_portal_frame_forces.csv, ELSET=(ECOL, EBEAM), SUBDIVISIONS=10
F, U, S
*END STEP
