*HEADING
14 - 3D Space Frame Structure with Hollow Pipe Profiles
*USER ELEMENT, TYPE=UB31, NODES=2, MAXDOF=6, INTEGRATIONPOINTS=1
*NODE, NSET=NALL
1,   0.0,  0.0,  0.0
2,   4.0,  0.0,  0.0
3,   4.0,  4.0,  0.0
4,   0.0,  4.0,  0.0
5,   0.0,  0.0,  3.5
6,   4.0,  0.0,  3.5
7,   4.0,  4.0,  3.5
8,   0.0,  4.0,  3.5

** Columns
*ELEMENT, TYPE=UB31, ELSET=ECOL
1, 1, 5
2, 2, 6
3, 3, 7
4, 4, 8

** Roof Beams
*ELEMENT, TYPE=UB31, ELSET=EBEAM
5, 5, 6
6, 6, 7
7, 7, 8
8, 8, 5

** Diagonal Braces
*ELEMENT, TYPE=UB31, ELSET=EBRACE
9, 5, 7
10, 6, 8

*ELSET, ELSET=EALL
ECOL, EBEAM, EBRACE

*MATERIAL, NAME=STEEL
*ELASTIC
210.0E9, 0.30

*USER BEAM SECTION, ELSET=ECOL, MATERIAL=STEEL, SECTION=PIPE
0.10, 0.010
0.0, 1.0, 0.0

*USER BEAM SECTION, ELSET=EBEAM, MATERIAL=STEEL, SECTION=PIPE
0.08, 0.008
0.0, 0.0, 1.0

*USER BEAM SECTION, ELSET=EBRACE, MATERIAL=STEEL, SECTION=PIPE, RELEASE1=M1-M2, RELEASE2=M1-M2
0.05, 0.005
0.0, 1.0, 0.0

*BOUNDARY
1, 1, 6
2, 1, 6
3, 1, 6
4, 1, 6

*STEP
*STATIC
*DLOAD
EBEAM, P1, -8000.0
*CLOAD
5, 1, 50000.0
8, 1, 50000.0
*NODE FILE
U, RF
*EL FILE
S
*USER BEAM OUTPUT, FILE=14_space_frame_forces.csv, ELSET=EALL, SUBDIVISIONS=5
F, U, S
*END STEP
