*HEADING
5-Storey 5x4 Bay Building - 25 Steps Code Check Benchmark
*USER ELEMENT, TYPE=UB31, NODES=2, MAXDOF=6, INTEGRATIONPOINTS=1
*NODE
1, 0.0000, 0.0000, 0.0000
2, 6.0000, 0.0000, 0.0000
3, 12.0000, 0.0000, 0.0000
4, 18.0000, 0.0000, 0.0000
5, 24.0000, 0.0000, 0.0000
6, 30.0000, 0.0000, 0.0000
7, 0.0000, 6.0000, 0.0000
8, 6.0000, 6.0000, 0.0000
9, 12.0000, 6.0000, 0.0000
10, 18.0000, 6.0000, 0.0000
11, 24.0000, 6.0000, 0.0000
12, 30.0000, 6.0000, 0.0000
13, 0.0000, 12.0000, 0.0000
14, 6.0000, 12.0000, 0.0000
15, 12.0000, 12.0000, 0.0000
16, 18.0000, 12.0000, 0.0000
17, 24.0000, 12.0000, 0.0000
18, 30.0000, 12.0000, 0.0000
19, 0.0000, 18.0000, 0.0000
20, 6.0000, 18.0000, 0.0000
** ... 410 like lines cut
*ELEMENT, TYPE=UB31, ELSET=ECOLUMNS
1, 1, 31
2, 2, 32
3, 3, 33
4, 4, 34
5, 5, 35
6, 6, 36
7, 7, 37
8, 8, 38
9, 9, 39
10, 10, 40
11, 11, 41
12, 12, 42
13, 13, 43
14, 14, 44
15, 15, 45
16, 16, 46
17, 17, 47
18, 18, 48
19, 19, 49
20, 20, 50
** ... 130 like lines cut
*ELEMENT, TYPE=UB31, ELSET=EBEAMS_X
151, 31, 181
152, 181, 182
153, 182, 32
154, 32, 183
155, 183, 184
156, 184, 33
157, 33, 185
158, 185, 186
159, 186, 34
160, 34, 187
161, 187, 188
162, 188, 35
163, 35, 189
164, 189, 190
165, 190, 36
166, 37, 191
167, 191, 192
168, 192, 38
169, 38, 193
170, 193, 194
** ... 355 like lines cut
*ELEMENT, TYPE=UB31, ELSET=EBEAMS_Y
526, 31, 37
527, 37, 43
528, 43, 49
529, 49, 55
530, 32, 38
531, 38, 44
532, 44, 50
533, 50, 56
534, 33, 39
535, 39, 45
536, 45, 51
537, 51, 57
538, 34, 40
539, 40, 46
540, 46, 52
541, 52, 58
542, 35, 41
543, 41, 47
544, 47, 53
545, 53, 59
** ... 100 like lines cut
*ELEMENT, TYPE=UB31, ELSET=ESECONDARY
646, 181, 191
647, 182, 192
648, 183, 193
649, 184, 194
650, 185, 195
651, 186, 196
652, 187, 197
653, 188, 198
654, 189, 199
655, 190, 200
656, 191, 201
657, 192, 202
658, 193, 203
659, 194, 204
660, 195, 205
661, 196, 206
662, 197, 207
663, 198, 208
664, 199, 209
665, 200, 210
** ... 180 like lines cut
*MATERIAL, NAME=STEEL_S355
*ELASTIC
210.0E9, 0.30
*DENSITY
7850.0
*MATERIAL, NAME=STEEL_S275
*ELASTIC
210.0E9, 0.30
*DENSITY
7850.0
*USER BEAM SECTION, ELSET=ECOLUMNS, MATERIAL=STEEL_S355, SECTION=I
0.300, 0.300, 0.019, 0.300, 0.019, 0.011
*USER BEAM SECTION, ELSET=EBEAMS_X, MATERIAL=STEEL_S355, SECTION=I
0.400, 0.180, 0.0135, 0.180, 0.0135, 0.0086
*USER BEAM SECTION, ELSET=EBEAMS_Y, MATERIAL=STEEL_S355, SECTION=I
0.360, 0.170, 0.0127, 0.170, 0.0127, 0.0080
*USER BEAM SECTION, ELSET=ESECONDARY, MATERIAL=STEEL_S275, SECTION=I
0.240, 0.120, 0.0098, 0.120, 0.0098, 0.0062
*BOUNDARY
1, 1, 6, 0.0
2, 1, 6, 0.0
3, 1, 6, 0.0
4, 1, 6, 0.0
5, 1, 6, 0.0
6, 1, 6, 0.0
7, 1, 6, 0.0
8, 1, 6, 0.0
9, 1, 6, 0.0
10, 1, 6, 0.0
11, 1, 6, 0.0
12, 1, 6, 0.0
13, 1, 6, 0.0
14, 1, 6, 0.0
15, 1, 6, 0.0
16, 1, 6, 0.0
17, 1, 6, 0.0
18, 1, 6, 0.0
19, 1, 6, 0.0
20, 1, 6, 0.0
** ... 10 like lines cut
*USER BEAM DESIGN, ELSET=ECOLUMNS
FY=355.0E6, LCR_Y=3.5, LCR_Z=3.5, L_LT=3.5, C1=1.0
*USER BEAM DESIGN, ELSET=EBEAMS_X
FY=355.0E6, LCR_Y=6.0, LCR_Z=2.0, L_LT=2.0, C1=1.13
*USER BEAM DESIGN, ELSET=EBEAMS_Y
FY=355.0E6, LCR_Y=6.0, LCR_Z=6.0, L_LT=6.0, C1=1.13
*USER BEAM DESIGN, ELSET=ESECONDARY
FY=275.0E6, LCR_Y=6.0, LCR_Z=6.0, L_LT=6.0, C1=1.13
*USER BEAM CHECK, CODE=EC3, FILE=building_5storey_ec3.csv
*STEP
*STATIC
*DLOAD, OP=NEW
ESECONDARY, P2, -12000.0
EBEAMS_X, P2, -6000.0
EBEAMS_Y, P2, -4000.0
*NODE FILE
U
*EL FILE
S
*END STEP
*STEP
*STATIC
*DLOAD, OP=NEW
ESECONDARY, P2, -8000.0
EBEAMS_X, P2, -4000.0
EBEAMS_Y, P2, -3000.0
*NODE FILE
U
*EL FILE
S
*END STEP
*STEP
*STATIC
*DLOAD, OP=NEW
*CLOAD, OP=NEW
31, 1, 15000.0
37, 1, 15000.0
43, 1, 15000.0
49, 1, 15000.0
55, 1, 15000.0
61, 1, 20000.0
67, 1, 20000.0
73, 1, 20000.0
79, 1, 20000.0
85, 1, 20000.0
91, 1, 25000.0
97, 1, 25000.0
103, 1, 25000.0
109, 1, 25000.0
115, 1, 25000.0
121, 1, 30000.0
127, 1, 30000.0
133, 1, 30000.0
139, 1, 30000.0
145, 1, 30000.0
** ... 5 like lines cut
*NODE FILE
U
*EL FILE
S
*END STEP
*STEP
*STATIC
*DLOAD, OP=NEW
*CLOAD, OP=NEW
31, 2, 15000.0
32, 2, 15000.0
33, 2, 15000.0
34, 2, 15000.0
35, 2, 15000.0
36, 2, 15000.0
61, 2, 20000.0
62, 2, 20000.0
63, 2, 20000.0
64, 2, 20000.0
65, 2, 20000.0
66, 2, 20000.0
91, 2, 25000.0
92, 2, 25000.0
93, 2, 25000.0
94, 2, 25000.0
95, 2, 25000.0
96, 2, 25000.0
121, 2, 30000.0
122, 2, 30000.0
** ... 10 like lines cut
*NODE FILE
U
*EL FILE
S
*END STEP
*STEP
*STATIC
*USER LOAD COMBINATION
COMB_01_ULS_GRAV, 1, 1.35, 2, 1.50
*NODE FILE
U
*EL FILE
S
*END STEP
*STEP
*STATIC
*USER LOAD COMBINATION
COMB_02_ULS_WX_POS, 1, 1.35, 3, 1.50
*NODE FILE
U
*EL FILE
S
*END STEP
*STEP
*STATIC
*USER LOAD COMBINATION
COMB_03_ULS_WX_NEG, 1, 1.35, 3, -1.50
*NODE FILE
U
*EL FILE
S
*END STEP
*STEP
*STATIC
*USER LOAD COMBINATION
COMB_04_ULS_WY_POS, 1, 1.35, 4, 1.50
*NODE FILE
U
*EL FILE
S
*END STEP
*STEP
*STATIC
*USER LOAD COMBINATION
COMB_05_ULS_WY_NEG, 1, 1.35, 4, -1.50
*NODE FILE
U
*EL FILE
S
*END STEP
*STEP
*STATIC
*USER LOAD COMBINATION
COMB_06_ULS_UPLIFT_WX, 1, 1.00, 3, 1.50
*NODE FILE
U
*EL FILE
S
*END STEP
*STEP
*STATIC
*USER LOAD COMBINATION
COMB_07_ULS_UPLIFT_WXN, 1, 1.00, 3, -1.50
*NODE FILE
U
*EL FILE
S
*END STEP
*STEP
*STATIC
*USER LOAD COMBINATION
COMB_08_ULS_UPLIFT_WY, 1, 1.00, 4, 1.50
*NODE FILE
U
*EL FILE
S
*END STEP
*STEP
*STATIC
*USER LOAD COMBINATION
COMB_09_ULS_UPLIFT_WYN, 1, 1.00, 4, -1.50
*NODE FILE
U
*EL FILE
S
*END STEP
*STEP
*STATIC
*USER LOAD COMBINATION
COMB_10_ULS_COMB_WX_P, 1, 1.35, 2, 1.05, 3, 1.50
*NODE FILE
U
*EL FILE
S
*END STEP
*STEP
*STATIC
*USER LOAD COMBINATION
COMB_11_ULS_COMB_WX_N, 1, 1.35, 2, 1.05, 3, -1.50
*NODE FILE
U
*EL FILE
S
*END STEP
*STEP
*STATIC
*USER LOAD COMBINATION
COMB_12_ULS_COMB_WY_P, 1, 1.35, 2, 1.05, 4, 1.50
*NODE FILE
U
*EL FILE
S
*END STEP
*STEP
*STATIC
*USER LOAD COMBINATION
COMB_13_ULS_COMB_WY_N, 1, 1.35, 2, 1.05, 4, -1.50
*NODE FILE
U
*EL FILE
S
*END STEP
*STEP
*STATIC
*USER LOAD COMBINATION
COMB_14_ULS_ACCID_WX, 1, 1.00, 2, 1.05, 3, 1.50
*NODE FILE
U
*EL FILE
S
*END STEP
*STEP
*STATIC
*USER LOAD COMBINATION
COMB_15_ULS_ACCID_WXN, 1, 1.00, 2, 1.05, 3, -1.50
*NODE FILE
U
*EL FILE
S
*END STEP
*STEP
*STATIC
*USER LOAD COMBINATION
COMB_16_ULS_ACCID_WY, 1, 1.00, 2, 1.05, 4, 1.50
*NODE FILE
U
*EL FILE
S
*END STEP
*STEP
*STATIC
*USER LOAD COMBINATION
COMB_17_ULS_ACCID_WYN, 1, 1.00, 2, 1.05, 4, -1.50
*NODE FILE
U
*EL FILE
S
*END STEP
*STEP
*STATIC
*USER LOAD COMBINATION
COMB_18_SLS_CHAR_WX, 1, 1.00, 2, 1.00, 3, 1.00
*NODE FILE
U
*EL FILE
S
*END STEP
*STEP
*STATIC
*USER LOAD COMBINATION
COMB_19_SLS_CHAR_WY, 1, 1.00, 2, 1.00, 4, 1.00
*NODE FILE
U
*EL FILE
S
*END STEP
*STEP
*STATIC
*USER LOAD COMBINATION
COMB_20_ULS_WIND_DOM_X, 1, 1.35, 2, 1.50, 3, 0.90
*NODE FILE
U
*EL FILE
S
*END STEP
*STEP
*STATIC
*USER LOAD COMBINATION
COMB_21_ULS_WIND_DOM_Y, 1, 1.35, 2, 1.50, 4, 0.90
*NODE FILE
U
*EL FILE
S
*END STEP
